<?xml version="1.0" encoding="UTF-8"?>

<!-- generated on 02/26/20 13:48:49 by Eclipse SUMO netedit Version 1.4.0
<configuration xmlns:xsi="http://www.w3.org/2001/XMLSchema-instance" xsi:noNamespaceSchemaLocation="http://sumo.dlr.de/xsd/netconvertConfiguration.xsd">

    <input>
        <sumo-net-file value="C:\Users\Matt\Documents\Capstone\sumo-1.4.0\bin\FinalNetwork.net.xml"/>
    </input>

    <output>
        <output-file value="C:\Users\Matt\Documents\Capstone\sumo-1.4.0\bin\FinalNetwork.net.xml"/>
    </output>

    <processing>
        <geometry.min-radius.fix.railways value="false"/>
        <geometry.max-grade.fix value="false"/>
        <offset.disable-normalization value="true"/>
        <lefthand value="false"/>
    </processing>

    <junctions>
        <no-turnarounds value="true"/>
        <junctions.corner-detail value="5"/>
        <junctions.limit-turn-speed value="5.5"/>
        <rectangular-lane-cut value="false"/>
    </junctions>

    <pedestrian>
        <walkingareas value="false"/>
    </pedestrian>

    <netedit>
        <route-files value="C:\Users\Matt\Documents\Capstone\sumo-1.4.0\bin\FinalRoute.rou.xml"/>
    </netedit>

    <report>
        <aggregate-warnings value="5"/>
    </report>

</configuration>
-->

<routes xmlns:xsi="http://www.w3.org/2001/XMLSchema-instance" xsi:noNamespaceSchemaLocation="http://sumo.dlr.de/xsd/routes_file.xsd">
    <route edges="2 7" color="yellow" id="route_0"/>
    <route edges="2 8" color="yellow" id="route_1"/>
    <route edges="1 7" color="yellow" id="route_10"/>
    <route edges="1 -gneE0" color="yellow" id="route_11"/>
    <route edges="gneE0 -gneE1" color="yellow" id="route_2"/>
    <route edges="3 -gneE0" color="yellow" id="route_3"/>
    <route edges="3 -gneE1" color="yellow" id="route_4"/>
    <route edges="3 8" color="yellow" id="route_5"/>
    <route edges="4 7" color="yellow" id="route_6"/>
    <route edges="4 -gneE0" color="yellow" id="route_7"/>
    <route edges="4 -gneE1" color="yellow" id="route_8"/>
    <route edges="gneE1 8" color="yellow" id="route_9"/>
    <flow id="flow0" begin="0.00" route="route_9" end="900.00" period="36.00"/>
    <flow id="flow144" begin="0.00" route="route_6" end="900.00" period="112.50"/>
    <flow id="flow192" begin="0.00" route="route_7" end="900.00" period="11.25"/>
    <flow id="flow240" begin="0.00" route="route_8" end="900.00" period="225.00"/>
    <flow id="flow288" begin="0.00" route="route_3" end="900.00" period="150.00"/>
    <flow id="flow336" begin="0.00" route="route_4" end="900.00" period="25.00"/>
    <flow id="flow384" begin="0.00" route="route_5" end="900.00" period="64.29"/>
    <flow id="flow432" begin="0.00" route="route_0" end="900.00" period="30.00"/>
    <flow id="flow48" begin="0.00" route="route_10" end="900.00" period="12.50"/>
    <flow id="flow480" begin="0.00" route="route_1" end="900.00" period="13.64"/>
    <flow id="flow528" begin="0.00" route="route_2" end="900.00" period="56.25"/>
    <flow id="flow96" begin="0.00" route="route_11" end="900.00" period="225.00"/>
    <flow id="flow1" begin="900.00" route="route_9" end="1800.00" period="12.33"/>
    <flow id="flow145" begin="900.00" route="route_6" end="1800.00" period="112.50"/>
    <flow id="flow193" begin="900.00" route="route_7" end="1800.00" period="12.33"/>
    <flow id="flow241" begin="900.00" route="route_8" end="1800.00" period="90.00"/>
    <flow id="flow289" begin="900.00" route="route_3" end="1800.00" period="112.50"/>
    <flow id="flow337" begin="900.00" route="route_4" end="1800.00" period="33.33"/>
    <flow id="flow385" begin="900.00" route="route_5" end="1800.00" period="40.91"/>
    <flow id="flow433" begin="900.00" route="route_0" end="1800.00" period="34.62"/>
    <flow id="flow481" begin="900.00" route="route_1" end="1800.00" period="10.59"/>
    <flow id="flow49" begin="900.00" route="route_10" end="1800.00" period="7.26"/>
    <flow id="flow529" begin="900.00" route="route_2" end="1800.00" period="22.50"/>
    <flow id="flow97" begin="900.00" route="route_11" end="1800.00" period="50.00"/>
    <flow id="flow146" begin="1800.00" route="route_6" end="2700.00" period="69.23"/>
    <flow id="flow194" begin="1800.00" route="route_7" end="2700.00" period="7.03"/>
    <flow id="flow2" begin="1800.00" route="route_9" end="2700.00" period="14.75"/>
    <flow id="flow242" begin="1800.00" route="route_8" end="2700.00" period="40.91"/>
    <flow id="flow290" begin="1800.00" route="route_3" end="2700.00" period="90.00"/>
    <flow id="flow338" begin="1800.00" route="route_4" end="2700.00" period="16.07"/>
    <flow id="flow386" begin="1800.00" route="route_5" end="2700.00" period="31.03"/>
    <flow id="flow434" begin="1800.00" route="route_0" end="2700.00" period="24.32"/>
    <flow id="flow482" begin="1800.00" route="route_1" end="2700.00" period="10.23"/>
    <flow id="flow50" begin="1800.00" route="route_10" end="2700.00" period="6.52"/>
    <flow id="flow530" begin="1800.00" route="route_2" end="2700.00" period="22.50"/>
    <flow id="flow98" begin="1800.00" route="route_11" end="2700.00" period="56.25"/>
    <flow id="flow147" begin="2700.00" route="route_6" end="3600.00" period="45.00"/>
    <flow id="flow195" begin="2700.00" route="route_7" end="3600.00" period="8.11"/>
    <flow id="flow243" begin="2700.00" route="route_8" end="3600.00" period="60.00"/>
    <flow id="flow291" begin="2700.00" route="route_3" end="3600.00" period="180.00"/>
    <flow id="flow3" begin="2700.00" route="route_9" end="3600.00" period="15.00"/>
    <flow id="flow339" begin="2700.00" route="route_4" end="3600.00" period="18.37"/>
    <flow id="flow387" begin="2700.00" route="route_5" end="3600.00" period="36.00"/>
    <flow id="flow435" begin="2700.00" route="route_0" end="3600.00" period="24.32"/>
    <flow id="flow483" begin="2700.00" route="route_1" end="3600.00" period="8.18"/>
    <flow id="flow51" begin="2700.00" route="route_10" end="3600.00" period="6.67"/>
    <flow id="flow531" begin="2700.00" route="route_2" end="3600.00" period="18.75"/>
    <flow id="flow99" begin="2700.00" route="route_11" end="3600.00" period="52.94"/>
    <flow id="flow100" begin="3600.00" route="route_11" end="4500.00" period="42.86"/>
    <flow id="flow148" begin="3600.00" route="route_6" end="4500.00" period="32.14"/>
    <flow id="flow196" begin="3600.00" route="route_7" end="4500.00" period="8.41"/>
    <flow id="flow244" begin="3600.00" route="route_8" end="4500.00" period="81.82"/>
    <flow id="flow292" begin="3600.00" route="route_3" end="4500.00" period="150.00"/>
    <flow id="flow340" begin="3600.00" route="route_4" end="4500.00" period="20.00"/>
    <flow id="flow388" begin="3600.00" route="route_5" end="4500.00" period="30.00"/>
    <flow id="flow4" begin="3600.00" route="route_9" end="4500.00" period="16.07"/>
    <flow id="flow436" begin="3600.00" route="route_0" end="4500.00" period="32.14"/>
    <flow id="flow484" begin="3600.00" route="route_1" end="4500.00" period="12.00"/>
    <flow id="flow52" begin="3600.00" route="route_10" end="4500.00" period="8.74"/>
    <flow id="flow532" begin="3600.00" route="route_2" end="4500.00" period="12.50"/>
    <flow id="flow101" begin="4500.00" route="route_11" end="5400.00" period="40.91"/>
    <flow id="flow149" begin="4500.00" route="route_6" end="5400.00" period="90.00"/>
    <flow id="flow197" begin="4500.00" route="route_7" end="5400.00" period="9.68"/>
    <flow id="flow245" begin="4500.00" route="route_8" end="5400.00" period="128.57"/>
    <flow id="flow293" begin="4500.00" route="route_3" end="5400.00" period="128.57"/>
    <flow id="flow341" begin="4500.00" route="route_4" end="5400.00" period="25.71"/>
    <flow id="flow389" begin="4500.00" route="route_5" end="5400.00" period="34.62"/>
    <flow id="flow437" begin="4500.00" route="route_0" end="5400.00" period="34.62"/>
    <flow id="flow485" begin="4500.00" route="route_1" end="5400.00" period="13.85"/>
    <flow id="flow5" begin="4500.00" route="route_9" end="5400.00" period="16.36"/>
    <flow id="flow53" begin="4500.00" route="route_10" end="5400.00" period="8.74"/>
    <flow id="flow533" begin="4500.00" route="route_2" end="5400.00" period="29.03"/>
    <flow id="flow102" begin="5400.00" route="route_11" end="6300.00" period="128.57"/>
    <flow id="flow150" begin="5400.00" route="route_6" end="6300.00" period="100.00"/>
    <flow id="flow198" begin="5400.00" route="route_7" end="6300.00" period="8.65"/>
    <flow id="flow246" begin="5400.00" route="route_8" end="6300.00" period="60.00"/>
    <flow id="flow294" begin="5400.00" route="route_3" end="6300.00" period="225.00"/>
    <flow id="flow342" begin="5400.00" route="route_4" end="6300.00" period="40.91"/>
    <flow id="flow390" begin="5400.00" route="route_5" end="6300.00" period="45.00"/>
    <flow id="flow438" begin="5400.00" route="route_0" end="6300.00" period="31.03"/>
    <flow id="flow486" begin="5400.00" route="route_1" end="6300.00" period="19.57"/>
    <flow id="flow534" begin="5400.00" route="route_2" end="6300.00" period="60.00"/>
    <flow id="flow54" begin="5400.00" route="route_10" end="6300.00" period="14.52"/>
    <flow id="flow6" begin="5400.00" route="route_9" end="6300.00" period="25.00"/>
    <flow id="flow103" begin="6300.00" route="route_11" end="7200.00" period="128.57"/>
    <flow id="flow151" begin="6300.00" route="route_6" end="7200.00" period="150.00"/>
    <flow id="flow199" begin="6300.00" route="route_7" end="7200.00" period="10.35"/>
    <flow id="flow247" begin="6300.00" route="route_8" end="7200.00" period="90.00"/>
    <flow id="flow295" begin="6300.00" route="route_3" end="7200.00" period="150.00"/>
    <flow id="flow343" begin="6300.00" route="route_4" end="7200.00" period="32.14"/>
    <flow id="flow391" begin="6300.00" route="route_5" end="7200.00" period="39.13"/>
    <flow id="flow439" begin="6300.00" route="route_0" end="7200.00" period="32.14"/>
    <flow id="flow487" begin="6300.00" route="route_1" end="7200.00" period="13.85"/>
    <flow id="flow535" begin="6300.00" route="route_2" end="7200.00" period="50.00"/>
    <flow id="flow55" begin="6300.00" route="route_10" end="7200.00" period="14.52"/>
    <flow id="flow7" begin="6300.00" route="route_9" end="7200.00" period="40.91"/>
    <flow id="flow104" begin="7200.00" route="route_11" end="8100.00" period="300.00"/>
    <flow id="flow152" begin="7200.00" route="route_6" end="8100.00" period="225.00"/>
    <flow id="flow200" begin="7200.00" route="route_7" end="8100.00" period="11.39"/>
    <flow id="flow248" begin="7200.00" route="route_8" end="8100.00" period="180.00"/>
    <flow id="flow296" begin="7200.00" route="route_3" end="8100.00" period="112.50"/>
    <flow id="flow344" begin="7200.00" route="route_4" end="8100.00" period="52.94"/>
    <flow id="flow392" begin="7200.00" route="route_5" end="8100.00" period="52.94"/>
    <flow id="flow440" begin="7200.00" route="route_0" end="8100.00" period="40.91"/>
    <flow id="flow488" begin="7200.00" route="route_1" end="8100.00" period="18.75"/>
    <flow id="flow536" begin="7200.00" route="route_2" end="8100.00" period="81.82"/>
    <flow id="flow56" begin="7200.00" route="route_10" end="8100.00" period="17.31"/>
    <flow id="flow8" begin="7200.00" route="route_9" end="8100.00" period="25.71"/>
    <flow id="flow105" begin="8100.00" route="route_11" end="9000.00" period="150.00"/>
    <flow id="flow153" begin="8100.00" route="route_6" end="9000.00" period="225.00"/>
    <flow id="flow201" begin="8100.00" route="route_7" end="9000.00" period="16.07"/>
    <flow id="flow249" begin="8100.00" route="route_8" end="9000.00" period="225.00"/>
    <flow id="flow297" begin="8100.00" route="route_3" end="9000.00" period="75.00"/>
    <flow id="flow345" begin="8100.00" route="route_4" end="9000.00" period="60.00"/>
    <flow id="flow393" begin="8100.00" route="route_5" end="9000.00" period="52.94"/>
    <flow id="flow441" begin="8100.00" route="route_0" end="9000.00" period="42.86"/>
    <flow id="flow489" begin="8100.00" route="route_1" end="9000.00" period="16.67"/>
    <flow id="flow537" begin="8100.00" route="route_2" end="9000.00" period="81.82"/>
    <flow id="flow57" begin="8100.00" route="route_10" end="9000.00" period="21.95"/>
    <flow id="flow9" begin="8100.00" route="route_9" end="9000.00" period="33.33"/>
    <flow id="flow10" begin="9000.00" route="route_9" end="9900.00" period="34.62"/>
    <flow id="flow106" begin="9000.00" route="route_11" end="9900.00" period="225.00"/>
    <flow id="flow154" begin="9000.00" route="route_6" end="9900.00" period="450.00"/>
    <flow id="flow202" begin="9000.00" route="route_7" end="9900.00" period="14.52"/>
    <flow id="flow250" begin="9000.00" route="route_8" end="9900.00" period="81.82"/>
    <flow id="flow298" begin="9000.00" route="route_3" end="9900.00" period="112.50"/>
    <flow id="flow346" begin="9000.00" route="route_4" end="9900.00" period="112.50"/>
    <flow id="flow394" begin="9000.00" route="route_5" end="9900.00" period="36.00"/>
    <flow id="flow442" begin="9000.00" route="route_0" end="9900.00" period="33.33"/>
    <flow id="flow490" begin="9000.00" route="route_1" end="9900.00" period="19.57"/>
    <flow id="flow538" begin="9000.00" route="route_2" end="9900.00" period="60.00"/>
    <flow id="flow58" begin="9000.00" route="route_10" end="9900.00" period="21.43"/>
    <flow id="flow107" begin="9900.00" route="route_11" end="10800.00" period="128.57"/>
    <flow id="flow11" begin="9900.00" route="route_9" end="10800.00" period="45.00"/>
    <flow id="flow155" begin="9900.00" route="route_6" end="10800.00" period="900.00"/>
    <flow id="flow203" begin="9900.00" route="route_7" end="10800.00" period="16.36"/>
    <flow id="flow251" begin="9900.00" route="route_8" end="10800.00" period="225.00"/>
    <flow id="flow299" begin="9900.00" route="route_3" end="10800.00" period="100.00"/>
    <flow id="flow347" begin="9900.00" route="route_4" end="10800.00" period="56.25"/>
    <flow id="flow395" begin="9900.00" route="route_5" end="10800.00" period="56.25"/>
    <flow id="flow443" begin="9900.00" route="route_0" end="10800.00" period="31.03"/>
    <flow id="flow491" begin="9900.00" route="route_1" end="10800.00" period="15.00"/>
    <flow id="flow539" begin="9900.00" route="route_2" end="10800.00" period="90.00"/>
    <flow id="flow59" begin="9900.00" route="route_10" end="10800.00" period="33.33"/>
    <flow id="flow108" begin="10800.00" route="route_11" end="11700.00" period="150.00"/>
    <flow id="flow12" begin="10800.00" route="route_9" end="11700.00" period="40.91"/>
    <flow id="flow156" begin="10800.00" route="route_6" end="11700.00" period="450.00"/>
    <flow id="flow204" begin="10800.00" route="route_7" end="11700.00" period="15.00"/>
    <flow id="flow252" begin="10800.00" route="route_8" end="11700.00" period="128.57"/>
    <flow id="flow300" begin="10800.00" route="route_3" end="11700.00" period="180.00"/>
    <flow id="flow348" begin="10800.00" route="route_4" end="11700.00" period="64.29"/>
    <flow id="flow396" begin="10800.00" route="route_5" end="11700.00" period="69.23"/>
    <flow id="flow444" begin="10800.00" route="route_0" end="11700.00" period="42.86"/>
    <flow id="flow492" begin="10800.00" route="route_1" end="11700.00" period="16.07"/>
    <flow id="flow540" begin="10800.00" route="route_2" end="11700.00" period="81.82"/>
    <flow id="flow60" begin="10800.00" route="route_10" end="11700.00" period="32.14"/>
    <flow id="flow109" begin="11700.00" route="route_11" end="12600.00" period="450.00"/>
    <flow id="flow13" begin="11700.00" route="route_9" end="12600.00" period="69.23"/>
    <flow id="flow157" begin="11700.00" route="route_6" end="12600.00" period="225.00"/>
    <flow id="flow205" begin="11700.00" route="route_7" end="12600.00" period="13.85"/>
    <flow id="flow253" begin="11700.00" route="route_8" end="12600.00" period="112.50"/>
    <flow id="flow301" begin="11700.00" route="route_3" end="12600.00" period="100.00"/>
    <flow id="flow349" begin="11700.00" route="route_4" end="12600.00" period="42.86"/>
    <flow id="flow397" begin="11700.00" route="route_5" end="12600.00" period="34.62"/>
    <flow id="flow445" begin="11700.00" route="route_0" end="12600.00" period="26.47"/>
    <flow id="flow493" begin="11700.00" route="route_1" end="12600.00" period="18.37"/>
    <flow id="flow541" begin="11700.00" route="route_2" end="12600.00" period="75.00"/>
    <flow id="flow61" begin="11700.00" route="route_10" end="12600.00" period="39.13"/>
    <flow id="flow110" begin="12600.00" route="route_11" end="13500.00" period="300.00"/>
    <flow id="flow14" begin="12600.00" route="route_9" end="13500.00" period="52.94"/>
    <flow id="flow158" begin="12600.00" route="route_6" end="13500.00" period="300.00"/>
    <flow id="flow206" begin="12600.00" route="route_7" end="13500.00" period="21.95"/>
    <flow id="flow254" begin="12600.00" route="route_8" end="13500.00" period="100.00"/>
    <flow id="flow302" begin="12600.00" route="route_3" end="13500.00" period="225.00"/>
    <flow id="flow350" begin="12600.00" route="route_4" end="13500.00" period="47.37"/>
    <flow id="flow398" begin="12600.00" route="route_5" end="13500.00" period="40.91"/>
    <flow id="flow446" begin="12600.00" route="route_0" end="13500.00" period="42.86"/>
    <flow id="flow494" begin="12600.00" route="route_1" end="13500.00" period="21.95"/>
    <flow id="flow542" begin="12600.00" route="route_2" end="13500.00" period="81.82"/>
    <flow id="flow62" begin="12600.00" route="route_10" end="13500.00" period="23.68"/>
    <flow id="flow111" begin="13500.00" route="route_11" end="14400.00" period="450.00"/>
    <flow id="flow15" begin="13500.00" route="route_9" end="14400.00" period="42.86"/>
    <flow id="flow159" begin="13500.00" route="route_6" end="14400.00" period="112.50"/>
    <flow id="flow207" begin="13500.00" route="route_7" end="14400.00" period="17.31"/>
    <flow id="flow255" begin="13500.00" route="route_8" end="14400.00" period="75.00"/>
    <flow id="flow303" begin="13500.00" route="route_3" end="14400.00" period="112.50"/>
    <flow id="flow351" begin="13500.00" route="route_4" end="14400.00" period="50.00"/>
    <flow id="flow399" begin="13500.00" route="route_5" end="14400.00" period="42.86"/>
    <flow id="flow447" begin="13500.00" route="route_0" end="14400.00" period="37.50"/>
    <flow id="flow495" begin="13500.00" route="route_1" end="14400.00" period="14.06"/>
    <flow id="flow543" begin="13500.00" route="route_2" end="14400.00" period="69.23"/>
    <flow id="flow63" begin="13500.00" route="route_10" end="14400.00" period="39.13"/>
    <flow id="flow112" begin="14400.00" route="route_11" end="15300.00" period="450.00"/>
    <flow id="flow16" begin="14400.00" route="route_9" end="15300.00" period="30.00"/>
    <flow id="flow160" begin="14400.00" route="route_6" end="15300.00" period="225.00"/>
    <flow id="flow208" begin="14400.00" route="route_7" end="15300.00" period="15.79"/>
    <flow id="flow256" begin="14400.00" route="route_8" end="15300.00" period="90.00"/>
    <flow id="flow304" begin="14400.00" route="route_3" end="15300.00" period="112.50"/>
    <flow id="flow352" begin="14400.00" route="route_4" end="15300.00" period="34.62"/>
    <flow id="flow400" begin="14400.00" route="route_5" end="15300.00" period="42.86"/>
    <flow id="flow448" begin="14400.00" route="route_0" end="15300.00" period="32.14"/>
    <flow id="flow496" begin="14400.00" route="route_1" end="15300.00" period="17.65"/>
    <flow id="flow544" begin="14400.00" route="route_2" end="15300.00" period="56.25"/>
    <flow id="flow64" begin="14400.00" route="route_10" end="15300.00" period="26.47"/>
    <flow id="flow113" begin="15300.00" route="route_11" end="16200.00" period="450.00"/>
    <flow id="flow161" begin="15300.00" route="route_6" end="16200.00" period="300.00"/>
    <flow id="flow17" begin="15300.00" route="route_9" end="16200.00" period="45.00"/>
    <flow id="flow209" begin="15300.00" route="route_7" end="16200.00" period="14.06"/>
    <flow id="flow257" begin="15300.00" route="route_8" end="16200.00" period="128.57"/>
    <flow id="flow305" begin="15300.00" route="route_3" end="16200.00" period="100.00"/>
    <flow id="flow353" begin="15300.00" route="route_4" end="16200.00" period="47.37"/>
    <flow id="flow401" begin="15300.00" route="route_5" end="16200.00" period="37.50"/>
    <flow id="flow449" begin="15300.00" route="route_0" end="16200.00" period="33.33"/>
    <flow id="flow497" begin="15300.00" route="route_1" end="16200.00" period="13.64"/>
    <flow id="flow545" begin="15300.00" route="route_2" end="16200.00" period="52.94"/>
    <flow id="flow65" begin="15300.00" route="route_10" end="16200.00" period="26.47"/>
    <flow id="flow114" begin="16200.00" route="route_11" end="17100.00" period="112.50"/>
    <flow id="flow162" begin="16200.00" route="route_6" end="17100.00" period="180.00"/>
    <flow id="flow18" begin="16200.00" route="route_9" end="17100.00" period="40.91"/>
    <flow id="flow210" begin="16200.00" route="route_7" end="17100.00" period="12.33"/>
    <flow id="flow258" begin="16200.00" route="route_8" end="17100.00" period="150.00"/>
    <flow id="flow306" begin="16200.00" route="route_3" end="17100.00" period="150.00"/>
    <flow id="flow354" begin="16200.00" route="route_4" end="17100.00" period="75.00"/>
    <flow id="flow402" begin="16200.00" route="route_5" end="17100.00" period="52.94"/>
    <flow id="flow450" begin="16200.00" route="route_0" end="17100.00" period="25.71"/>
    <flow id="flow498" begin="16200.00" route="route_1" end="17100.00" period="12.68"/>
    <flow id="flow546" begin="16200.00" route="route_2" end="17100.00" period="39.13"/>
    <flow id="flow66" begin="16200.00" route="route_10" end="17100.00" period="32.14"/>
    <flow id="flow115" begin="17100.00" route="route_11" end="18000.00" period="180.00"/>
    <flow id="flow163" begin="17100.00" route="route_6" end="18000.00" period="180.00"/>
    <flow id="flow19" begin="17100.00" route="route_9" end="18000.00" period="52.94"/>
    <flow id="flow211" begin="17100.00" route="route_7" end="18000.00" period="14.06"/>
    <flow id="flow259" begin="17100.00" route="route_8" end="18000.00" period="128.57"/>
    <flow id="flow307" begin="17100.00" route="route_3" end="18000.00" period="112.50"/>
    <flow id="flow355" begin="17100.00" route="route_4" end="18000.00" period="47.37"/>
    <flow id="flow403" begin="17100.00" route="route_5" end="18000.00" period="47.37"/>
    <flow id="flow451" begin="17100.00" route="route_0" end="18000.00" period="42.86"/>
    <flow id="flow499" begin="17100.00" route="route_1" end="18000.00" period="16.07"/>
    <flow id="flow547" begin="17100.00" route="route_2" end="18000.00" period="40.91"/>
    <flow id="flow67" begin="17100.00" route="route_10" end="18000.00" period="24.32"/>
    <flow id="flow116" begin="18000.00" route="route_11" end="18900.00" period="90.00"/>
    <flow id="flow164" begin="18000.00" route="route_6" end="18900.00" period="300.00"/>
    <flow id="flow20" begin="18000.00" route="route_9" end="18900.00" period="52.94"/>
    <flow id="flow212" begin="18000.00" route="route_7" end="18900.00" period="11.54"/>
    <flow id="flow260" begin="18000.00" route="route_8" end="18900.00" period="150.00"/>
    <flow id="flow308" begin="18000.00" route="route_3" end="18900.00" period="64.29"/>
    <flow id="flow356" begin="18000.00" route="route_4" end="18900.00" period="31.03"/>
    <flow id="flow404" begin="18000.00" route="route_5" end="18900.00" period="27.27"/>
    <flow id="flow452" begin="18000.00" route="route_0" end="18900.00" period="23.08"/>
    <flow id="flow500" begin="18000.00" route="route_1" end="18900.00" period="10.35"/>
    <flow id="flow548" begin="18000.00" route="route_2" end="18900.00" period="39.13"/>
    <flow id="flow68" begin="18000.00" route="route_10" end="18900.00" period="25.71"/>
    <flow id="flow117" begin="18900.00" route="route_11" end="19800.00" period="225.00"/>
    <flow id="flow165" begin="18900.00" route="route_6" end="19800.00" period="180.00"/>
    <flow id="flow21" begin="18900.00" route="route_9" end="19800.00" period="30.00"/>
    <flow id="flow213" begin="18900.00" route="route_7" end="19800.00" period="12.33"/>
    <flow id="flow261" begin="18900.00" route="route_8" end="19800.00" period="112.50"/>
    <flow id="flow309" begin="18900.00" route="route_3" end="19800.00" period="81.82"/>
    <flow id="flow357" begin="18900.00" route="route_4" end="19800.00" period="25.71"/>
    <flow id="flow405" begin="18900.00" route="route_5" end="19800.00" period="34.62"/>
    <flow id="flow453" begin="18900.00" route="route_0" end="19800.00" period="26.47"/>
    <flow id="flow501" begin="18900.00" route="route_1" end="19800.00" period="12.00"/>
    <flow id="flow549" begin="18900.00" route="route_2" end="19800.00" period="37.50"/>
    <flow id="flow69" begin="18900.00" route="route_10" end="19800.00" period="33.33"/>
    <flow id="flow118" begin="19800.00" route="route_11" end="20700.00" period="128.57"/>
    <flow id="flow166" begin="19800.00" route="route_6" end="20700.00" period="300.00"/>
    <flow id="flow214" begin="19800.00" route="route_7" end="20700.00" period="11.39"/>
    <flow id="flow22" begin="19800.00" route="route_9" end="20700.00" period="39.13"/>
    <flow id="flow262" begin="19800.00" route="route_8" end="20700.00" period="225.00"/>
    <flow id="flow310" begin="19800.00" route="route_3" end="20700.00" period="128.57"/>
    <flow id="flow358" begin="19800.00" route="route_4" end="20700.00" period="56.25"/>
    <flow id="flow406" begin="19800.00" route="route_5" end="20700.00" period="31.03"/>
    <flow id="flow454" begin="19800.00" route="route_0" end="20700.00" period="32.14"/>
    <flow id="flow502" begin="19800.00" route="route_1" end="20700.00" period="13.64"/>
    <flow id="flow550" begin="19800.00" route="route_2" end="20700.00" period="47.37"/>
    <flow id="flow70" begin="19800.00" route="route_10" end="20700.00" period="26.47"/>
    <flow id="flow119" begin="20700.00" route="route_11" end="21600.00" period="150.00"/>
    <flow id="flow167" begin="20700.00" route="route_6" end="21600.00" period="150.00"/>
    <flow id="flow215" begin="20700.00" route="route_7" end="21600.00" period="11.84"/>
    <flow id="flow23" begin="20700.00" route="route_9" end="21600.00" period="36.00"/>
    <flow id="flow263" begin="20700.00" route="route_8" end="21600.00" period="150.00"/>
    <flow id="flow311" begin="20700.00" route="route_3" end="21600.00" period="100.00"/>
    <flow id="flow359" begin="20700.00" route="route_4" end="21600.00" period="29.03"/>
    <flow id="flow407" begin="20700.00" route="route_5" end="21600.00" period="26.47"/>
    <flow id="flow455" begin="20700.00" route="route_0" end="21600.00" period="25.00"/>
    <flow id="flow503" begin="20700.00" route="route_1" end="21600.00" period="16.98"/>
    <flow id="flow551" begin="20700.00" route="route_2" end="21600.00" period="29.03"/>
    <flow id="flow71" begin="20700.00" route="route_10" end="21600.00" period="29.03"/>
    <flow id="flow120" begin="21600.00" route="route_11" end="22500.00" period="450.00"/>
    <flow id="flow168" begin="21600.00" route="route_6" end="22500.00" period="128.57"/>
    <flow id="flow216" begin="21600.00" route="route_7" end="22500.00" period="16.07"/>
    <flow id="flow24" begin="21600.00" route="route_9" end="22500.00" period="52.94"/>
    <flow id="flow264" begin="21600.00" route="route_8" end="22500.00" period="81.82"/>
    <flow id="flow312" begin="21600.00" route="route_3" end="22500.00" period="69.23"/>
    <flow id="flow360" begin="21600.00" route="route_4" end="22500.00" period="150.00"/>
    <flow id="flow408" begin="21600.00" route="route_5" end="22500.00" period="47.37"/>
    <flow id="flow456" begin="21600.00" route="route_0" end="22500.00" period="29.03"/>
    <flow id="flow504" begin="21600.00" route="route_1" end="22500.00" period="10.35"/>
    <flow id="flow552" begin="21600.00" route="route_2" end="22500.00" period="32.14"/>
    <flow id="flow72" begin="21600.00" route="route_10" end="22500.00" period="29.03"/>
    <flow id="flow121" begin="22500.00" route="route_11" end="23400.00" period="112.50"/>
    <flow id="flow169" begin="22500.00" route="route_6" end="23400.00" period="128.57"/>
    <flow id="flow217" begin="22500.00" route="route_7" end="23400.00" period="17.31"/>
    <flow id="flow25" begin="22500.00" route="route_9" end="23400.00" period="50.00"/>
    <flow id="flow265" begin="22500.00" route="route_8" end="23400.00" period="150.00"/>
    <flow id="flow313" begin="22500.00" route="route_3" end="23400.00" period="112.50"/>
    <flow id="flow361" begin="22500.00" route="route_4" end="23400.00" period="39.13"/>
    <flow id="flow409" begin="22500.00" route="route_5" end="23400.00" period="32.14"/>
    <flow id="flow457" begin="22500.00" route="route_0" end="23400.00" period="24.32"/>
    <flow id="flow505" begin="22500.00" route="route_1" end="23400.00" period="11.11"/>
    <flow id="flow553" begin="22500.00" route="route_2" end="23400.00" period="36.00"/>
    <flow id="flow73" begin="22500.00" route="route_10" end="23400.00" period="23.68"/>
    <flow id="flow122" begin="23400.00" route="route_11" end="24300.00" period="225.00"/>
    <flow id="flow170" begin="23400.00" route="route_6" end="24300.00" period="81.82"/>
    <flow id="flow218" begin="23400.00" route="route_7" end="24300.00" period="10.59"/>
    <flow id="flow26" begin="23400.00" route="route_9" end="24300.00" period="50.00"/>