<?xml version="1.0" encoding="UTF-8"?>

<!-- generated on 02/20/20 18:03:43 by Eclipse SUMO netedit Version 1.4.0
<configuration xmlns:xsi="http://www.w3.org/2001/XMLSchema-instance" xsi:noNamespaceSchemaLocation="http://sumo.dlr.de/xsd/netconvertConfiguration.xsd">

    <input>
        <sumo-net-file value="C:\Users\Matt\Documents\Capstone\sumo-1.4.0\bin\FinalNetwork.net.xml"/>
    </input>

    <output>
        <output-file value="C:\Users\Matt\Documents\Capstone\sumo-1.4.0\bin\FinalNetwork.net.xml"/>
    </output>

    <processing>
        <geometry.min-radius.fix.railways value="false"/>
        <geometry.max-grade.fix value="false"/>
        <offset.disable-normalization value="true"/>
        <lefthand value="false"/>
    </processing>

    <junctions>
        <no-turnarounds value="true"/>
        <junctions.corner-detail value="5"/>
        <junctions.limit-turn-speed value="5.5"/>
        <rectangular-lane-cut value="false"/>
    </junctions>

    <pedestrian>
        <walkingareas value="false"/>
    </pedestrian>

    <netedit>
        <route-files value="C:\Users\Matt\Documents\Capstone\sumo-1.4.0\bin\FinalRouteCar.rou.xml"/>
    </netedit>

    <report>
        <aggregate-warnings value="5"/>
    </report>

</configuration>
-->

<routes xmlns:xsi="http://www.w3.org/2001/XMLSchema-instance" xsi:noNamespaceSchemaLocation="http://sumo.dlr.de/xsd/routes_file.xsd">
    <route edges="2 7" color="yellow" id="route_0"/>
    <route edges="2 8" color="yellow" id="route_1"/>
    <route edges="1 7" color="yellow" id="route_10"/>
    <route edges="1 -gneE0" color="yellow" id="route_11"/>
    <route edges="gneE0 -gneE1" color="yellow" id="route_2"/>
    <route edges="3 -gneE0" color="yellow" id="route_3"/>
    <route edges="3 -gneE1" color="yellow" id="route_4"/>
    <route edges="3 8" color="yellow" id="route_5"/>
    <route edges="4 7" color="yellow" id="route_6"/>
    <route edges="4 -gneE0" color="yellow" id="route_7"/>
    <route edges="4 -gneE1" color="yellow" id="route_8"/>
    <route edges="gneE1 8" color="yellow" id="route_9"/>
    <vehicle id="vehicle_0" depart="0.00" route="route_4"/>
    <vehicle id="vehicle_1" depart="0.00" route="route_4"/>
    <vehicle id="vehicle_10" depart="0.00" route="route_3"/>
    <vehicle id="vehicle_11" depart="0.00" route="route_3"/>
    <vehicle id="vehicle_12" depart="0.00" route="route_6"/>
    <vehicle id="vehicle_13" depart="0.00" route="route_6"/>
    <vehicle id="vehicle_14" depart="0.00" route="route_6"/>
    <vehicle id="vehicle_15" depart="0.00" route="route_7"/>
    <vehicle id="vehicle_16" depart="0.00" route="route_7"/>
    <vehicle id="vehicle_17" depart="0.00" route="route_7"/>
    <vehicle id="vehicle_18" depart="0.00" route="route_9"/>
    <vehicle id="vehicle_19" depart="0.00" route="route_9"/>
    <vehicle id="vehicle_2" depart="0.00" route="route_4"/>
    <vehicle id="vehicle_20" depart="0.00" route="route_9"/>
    <vehicle id="vehicle_21" depart="0.00" route="route_2"/>
    <vehicle id="vehicle_22" depart="0.00" route="route_2"/>
    <vehicle id="vehicle_23" depart="0.00" route="route_2"/>
    <vehicle id="vehicle_24" depart="0.00" route="route_3"/>
    <vehicle id="vehicle_25" depart="0.00" route="route_1"/>
    <vehicle id="vehicle_26" depart="0.00" route="route_1"/>
    <vehicle id="vehicle_27" depart="0.00" route="route_5"/>
    <vehicle id="vehicle_28" depart="0.00" route="route_5"/>
    <vehicle id="vehicle_29" depart="0.00" route="route_5"/>
    <vehicle id="vehicle_3" depart="0.00" route="route_4"/>
    <vehicle id="vehicle_30" depart="0.00" route="route_0"/>
    <vehicle id="vehicle_31" depart="0.00" route="route_0"/>
    <vehicle id="vehicle_32" depart="0.00" route="route_0"/>
    <vehicle id="vehicle_33" depart="0.00" route="route_8"/>
    <vehicle id="vehicle_34" depart="0.00" route="route_8"/>
    <vehicle id="vehicle_35" depart="0.00" route="route_8"/>
    <vehicle id="vehicle_36" depart="0.00" route="route_11"/>
    <vehicle id="vehicle_37" depart="0.00" route="route_11"/>
    <vehicle id="vehicle_38" depart="0.00" route="route_11"/>
    <vehicle id="vehicle_39" depart="0.00" route="route_6"/>
    <vehicle id="vehicle_4" depart="0.00" route="route_4"/>
    <vehicle id="vehicle_40" depart="0.00" route="route_6"/>
    <vehicle id="vehicle_41" depart="0.00" route="route_9"/>
    <vehicle id="vehicle_42" depart="0.00" route="route_9"/>
    <vehicle id="vehicle_43" depart="0.00" route="route_1"/>
    <vehicle id="vehicle_44" depart="0.00" route="route_1"/>
    <vehicle id="vehicle_45" depart="0.00" route="route_10"/>
    <vehicle id="vehicle_46" depart="0.00" route="route_10"/>
    <vehicle id="vehicle_47" depart="0.00" route="route_3"/>
    <vehicle id="vehicle_48" depart="0.00" route="route_3"/>
    <vehicle id="vehicle_49" depart="0.00" route="route_3"/>
    <vehicle id="vehicle_5" depart="0.00" route="route_4"/>
    <vehicle id="vehicle_50" depart="0.00" route="route_7"/>
    <vehicle id="vehicle_51" depart="0.00" route="route_7"/>
    <vehicle id="vehicle_52" depart="0.00" route="route_7"/>
    <vehicle id="vehicle_53" depart="0.00" route="route_8"/>
    <vehicle id="vehicle_54" depart="0.00" route="route_8"/>
    <vehicle id="vehicle_55" depart="0.00" route="route_10"/>
    <vehicle id="vehicle_56" depart="0.00" route="route_10"/>
    <vehicle id="vehicle_57" depart="0.00" route="route_9"/>
    <vehicle id="vehicle_58" depart="0.00" route="route_9"/>
    <vehicle id="vehicle_59" depart="0.00" route="route_2"/>
    <vehicle id="vehicle_6" depart="0.00" route="route_4"/>
    <vehicle id="vehicle_60" depart="0.00" route="route_2"/>
    <vehicle id="vehicle_61" depart="0.00" route="route_10"/>
    <vehicle id="vehicle_62" depart="0.00" route="route_10"/>
    <vehicle id="vehicle_63" depart="0.00" route="route_2"/>
    <vehicle id="vehicle_64" depart="0.00" route="route_2"/>
    <vehicle id="vehicle_65" depart="0.00" route="route_10"/>
    <vehicle id="vehicle_66" depart="0.00" route="route_10"/>
    <vehicle id="vehicle_67" depart="0.00" route="route_6"/>
    <vehicle id="vehicle_68" depart="0.00" route="route_6"/>
    <vehicle id="vehicle_69" depart="0.00" route="route_3"/>
    <vehicle id="vehicle_7" depart="0.00" route="route_4"/>
    <vehicle id="vehicle_70" depart="0.00" route="route_3"/>
    <vehicle id="vehicle_71" depart="0.00" route="route_4"/>
    <vehicle id="vehicle_72" depart="0.00" route="route_4"/>
    <vehicle id="vehicle_73" depart="0.00" route="route_10"/>
    <vehicle id="vehicle_8" depart="0.00" route="route_3"/>
    <vehicle id="vehicle_9" depart="0.00" route="route_3"/>
</routes>
