<additional xmlns:xsi="http://www.w3.org/2001/XMLSchema-instance" xsi:noNamespaceSchemaLocation="http://sumo.dlr.de/xsd/additional_file.xsd">
    <tlLogic id="gneJ8" type="static" programID="0" offset="0">
        <phase duration="42" state="gGGrgrrrgGGrgrrr"/>
        <phase duration="3" state="gyyrgrrrgyyrgrrr"/>
        <phase duration="20" state="grrGgrrrgrrGgrrr"/>
        <phase duration="3" state="grrygrrrgrrygrrr"/>
        <phase duration="42" state="grrrgGGrgrrrgGGr"/>
        <phase duration="3" state="grrrgyyrgrrrgyyr"/>
        <phase duration="20" state="grrrgrrGgrrrgrrG"/>
        <phase duration="3" state="grrrgrrygrrrgrry"/>
    </tlLogic>

		<edgeData id="<MEASUREMENT_ID>" file="<OUTPUT_FILE>"/>
		<laneData id="<MEASUREMENT_ID>" file="<OUTPUT_FILE2>"/>
		<tripinfo-output value="OUTPUT_FILE3"/>
</additional>