<?xml version="1.0" encoding="UTF-8"?>

<!-- generated on 04/17/20 12:54:23 by Eclipse SUMO netedit Version 1.4.0
<configuration xmlns:xsi="http://www.w3.org/2001/XMLSchema-instance" xsi:noNamespaceSchemaLocation="http://sumo.dlr.de/xsd/netconvertConfiguration.xsd">

    <input>
        <sumo-net-file value="C:\Users\Dylan%20B\Desktop\Hood%20Stuff\2020%20-2021\CS%20475%20Senior%20Seminar\sumo-win64-1.4.0\sumo-1.4.0\bin\Traffic-Project-master\FinalNetwork.net.xml"/>
    </input>

    <output>
        <output-file value="C:\Users\Dylan%20B\Desktop\Hood%20Stuff\2020%20-2021\CS%20475%20Senior%20Seminar\sumo-win64-1.4.0\sumo-1.4.0\bin\Traffic-Project-master\FinalNetwork.net.xml"/>
    </output>

    <processing>
        <geometry.min-radius.fix.railways value="false"/>
        <geometry.max-grade.fix value="false"/>
        <offset.disable-normalization value="true"/>
        <lefthand value="false"/>
    </processing>

    <junctions>
        <no-turnarounds value="true"/>
        <junctions.corner-detail value="5"/>
        <junctions.limit-turn-speed value="5.5"/>
        <rectangular-lane-cut value="false"/>
    </junctions>

    <pedestrian>
        <walkingareas value="false"/>
    </pedestrian>

    <report>
        <aggregate-warnings value="5"/>
    </report>

</configuration>
-->

<additional xmlns:xsi="http://www.w3.org/2001/XMLSchema-instance" xsi:noNamespaceSchemaLocation="http://sumo.dlr.de/xsd/additional_file.xsd">
	
	<edgeData id="DETECT_ID" file="OUTPUT_1.xml"/>
	<laneData id="DETECT_ID" file="OUTPUT_1.xml"/>
</additional>
