<?xml version="1.0" encoding="UTF-8"?>

<!-- generated on 03/24/20 16:52:00 by Eclipse SUMO netedit Version 1.4.0
<configuration xmlns:xsi="http://www.w3.org/2001/XMLSchema-instance" xsi:noNamespaceSchemaLocation="http://sumo.dlr.de/xsd/netconvertConfiguration.xsd">

    <input>
        <sumo-net-file value="C:\Users\Matt\Documents\Capstone\sumo-1.4.0\bin\HelloWorld.net.xml"/>
    </input>

    <output>
        <output-file value="C:\Users\Matt\Documents\Capstone\sumo-1.4.0\bin\HelloWorld.net.xml"/>
    </output>

    <processing>
        <geometry.min-radius.fix.railways value="false"/>
        <geometry.max-grade.fix value="false"/>
        <offset.disable-normalization value="true"/>
        <lefthand value="false"/>
    </processing>

    <junctions>
        <no-turnarounds value="true"/>
        <junctions.corner-detail value="5"/>
        <junctions.limit-turn-speed value="5.5"/>
        <rectangular-lane-cut value="false"/>
    </junctions>

    <pedestrian>
        <walkingareas value="false"/>
    </pedestrian>

    <netedit>
        <route-files value="C:\Users\Matt\Documents\Capstone\sumo-1.4.0\bin\HelloWorld.rou.xml"/>
    </netedit>

    <report>
        <aggregate-warnings value="5"/>
    </report>

</configuration>
-->

<routes xmlns:xsi="http://www.w3.org/2001/XMLSchema-instance" xsi:noNamespaceSchemaLocation="http://sumo.dlr.de/xsd/routes_file.xsd">
    <route edges="1to2 out" color="yellow" id="route_0"/>
    <vehicle id="vehicle_0" depart="0.00" color="128,0,0" route="route_0"/>
</routes>
