<?xml version="1.0" encoding="UTF-8"?>

<!-- generated on 02/19/20 13:54:21 by Eclipse SUMO netedit Version 1.4.0
<configuration xmlns:xsi="http://www.w3.org/2001/XMLSchema-instance" xsi:noNamespaceSchemaLocation="http://sumo.dlr.de/xsd/netconvertConfiguration.xsd">

    <input>
        <sumo-net-file value="C:\Users\Matt\Documents\Capstone\sumo-1.4.0\bin\Prototype1.net.xml"/>
    </input>

    <output>
        <output-file value="C:\Users\Matt\Documents\Capstone\sumo-1.4.0\bin\Prototype1.net.xml"/>
    </output>

    <processing>
        <geometry.min-radius.fix.railways value="false"/>
        <geometry.max-grade.fix value="false"/>
        <offset.disable-normalization value="true"/>
        <lefthand value="false"/>
    </processing>

    <junctions>
        <no-turnarounds value="true"/>
        <junctions.corner-detail value="5"/>
        <junctions.limit-turn-speed value="5.5"/>
        <rectangular-lane-cut value="false"/>
    </junctions>

    <pedestrian>
        <walkingareas value="false"/>
    </pedestrian>

    <report>
        <aggregate-warnings value="5"/>
    </report>

</configuration>
-->

<net version="1.3" junctionCornerDetail="5" limitTurnSpeed="5.50" xmlns:xsi="http://www.w3.org/2001/XMLSchema-instance" xsi:noNamespaceSchemaLocation="http://sumo.dlr.de/xsd/net_file.xsd">

    <location netOffset="0.00,0.00" convBoundary="-100.00,-100.00,100.00,100.00" origBoundary="-10000000000.00,-10000000000.00,10000000000.00,10000000000.00" projParameter="!"/>

    <edge id=":gneJ8_0" function="internal">
        <lane id=":gneJ8_0_0" index="0" allow="private emergency authority vip passenger hov taxi bus coach delivery truck trailer motorcycle moped evehicle custom1 custom2" speed="7.33" length="11.73" shape="-8.00,13.60 -8.35,9.75 -9.40,7.00 -11.15,5.35 -13.60,4.80"/>
    </edge>
    <edge id=":gneJ8_1" function="internal">
        <lane id=":gneJ8_1_0" index="0" speed="13.89" length="27.20" shape="-8.00,13.60 -8.00,-13.60"/>
        <lane id=":gneJ8_1_1" index="1" speed="13.89" length="27.20" shape="-4.80,13.60 -4.80,-13.60"/>
        <lane id=":gneJ8_1_2" index="2" speed="13.89" length="27.20" shape="-1.60,13.60 -1.60,-13.60"/>
    </edge>
    <edge id=":gneJ8_4" function="internal">
        <lane id=":gneJ8_4_0" index="0" speed="9.84" length="8.68" shape="-1.60,13.60 -0.85,6.95 0.00,5.16"/>
    </edge>
    <edge id=":gneJ8_16" function="internal">
        <lane id=":gneJ8_16_0" index="0" speed="9.84" length="13.32" shape="0.00,5.16 1.40,2.20 5.15,-0.65 10.40,-1.60"/>
    </edge>
    <edge id=":gneJ8_5" function="internal">
        <lane id=":gneJ8_5_0" index="0" speed="6.51" length="9.03" shape="10.40,8.00 7.95,8.35 6.20,9.40 5.15,11.15 4.80,13.60"/>
    </edge>
    <edge id=":gneJ8_6" function="internal">
        <lane id=":gneJ8_6_0" index="0" allow="private emergency authority vip passenger hov taxi bus coach delivery truck trailer motorcycle moped evehicle custom1 custom2" speed="13.89" length="24.00" shape="10.40,4.80 -13.60,4.80"/>
        <lane id=":gneJ8_6_1" index="1" allow="private emergency authority vip passenger hov taxi bus coach delivery truck trailer motorcycle moped evehicle custom1 custom2" speed="13.89" length="24.00" shape="10.40,1.60 -13.60,1.60"/>
    </edge>
    <edge id=":gneJ8_8" function="internal">
        <lane id=":gneJ8_8_0" index="0" speed="6.51" length="9.03" shape="4.80,-13.60 5.15,-11.15 6.20,-9.40 7.95,-8.35 10.40,-8.00"/>
    </edge>
    <edge id=":gneJ8_9" function="internal">
        <lane id=":gneJ8_9_0" index="0" speed="13.89" length="27.20" shape="4.80,-13.60 4.80,13.60"/>
        <lane id=":gneJ8_9_1" index="1" speed="13.89" length="27.20" shape="1.60,-13.60 1.60,13.60"/>
    </edge>
    <edge id=":gneJ8_11" function="internal">
        <lane id=":gneJ8_11_0" index="0" allow="private emergency authority vip passenger hov taxi bus coach delivery truck trailer motorcycle moped evehicle custom1 custom2" speed="10.36" length="7.98" shape="1.60,-13.60 0.65,-6.95 0.00,-5.87"/>
    </edge>
    <edge id=":gneJ8_17" function="internal">
        <lane id=":gneJ8_17_0" index="0" allow="private emergency authority vip passenger hov taxi bus coach delivery truck trailer motorcycle moped evehicle custom1 custom2" speed="10.36" length="16.53" shape="0.00,-5.87 -2.20,-2.20 -6.95,0.65 -13.60,1.60"/>
    </edge>
    <edge id=":gneJ8_12" function="internal">
        <lane id=":gneJ8_12_0" index="0" speed="6.51" length="9.03" shape="-13.60,-8.00 -11.15,-8.35 -9.40,-9.40 -8.35,-11.15 -8.00,-13.60"/>
    </edge>
    <edge id=":gneJ8_13" function="internal">
        <lane id=":gneJ8_13_0" index="0" speed="13.89" length="24.00" shape="-13.60,-8.00 10.40,-8.00"/>
        <lane id=":gneJ8_13_1" index="1" speed="13.89" length="24.00" shape="-13.60,-4.80 10.40,-4.80"/>
    </edge>
    <edge id=":gneJ8_15" function="internal">
        <lane id=":gneJ8_15_0" index="0" speed="10.36" length="7.98" shape="-13.60,-1.60 -6.95,-0.65 -5.87,-0.00"/>
    </edge>
    <edge id=":gneJ8_18" function="internal">
        <lane id=":gneJ8_18_0" index="0" speed="10.36" length="16.53" shape="-5.87,-0.00 -2.20,2.20 0.65,6.95 1.60,13.60"/>
    </edge>

    <edge id="-2" from="gneJ8" to="gneJ9" priority="-1">
        <lane id="-2_0" index="0" speed="13.89" length="89.60" shape="10.40,-8.00 100.00,-8.00"/>
        <lane id="-2_1" index="1" speed="13.89" length="89.60" shape="10.40,-4.80 100.00,-4.80"/>
        <lane id="-2_2" index="2" speed="13.89" length="89.60" shape="10.40,-1.60 100.00,-1.60"/>
    </edge>
    <edge id="1" from="gneJ11" to="gneJ8" priority="-1">
        <lane id="1_0" index="0" speed="13.89" length="86.40" shape="4.80,-100.00 4.80,-13.60"/>
        <lane id="1_1" index="1" speed="13.89" length="86.40" shape="1.60,-100.00 1.60,-13.60"/>
    </edge>
    <edge id="2" from="gneJ9" to="gneJ8" priority="-1">
        <lane id="2_0" index="0" speed="13.89" length="89.60" shape="100.00,8.00 10.40,8.00"/>
        <lane id="2_1" index="1" speed="13.89" length="89.60" shape="100.00,4.80 10.40,4.80"/>
        <lane id="2_2" index="2" speed="13.89" length="89.60" shape="100.00,1.60 10.40,1.60"/>
    </edge>
    <edge id="3" from="gneJ10" to="gneJ8" priority="-1">
        <lane id="3_0" index="0" speed="13.89" length="86.40" shape="-8.00,100.00 -8.00,13.60"/>
        <lane id="3_1" index="1" speed="13.89" length="86.40" shape="-4.80,100.00 -4.80,13.60"/>
        <lane id="3_2" index="2" speed="13.89" length="86.40" shape="-1.60,100.00 -1.60,13.60"/>
    </edge>
    <edge id="4" from="gneJ7" to="gneJ8" priority="-1">
        <lane id="4_0" index="0" allow="private emergency authority vip passenger hov taxi bus coach delivery truck trailer motorcycle moped evehicle custom1 custom2" speed="13.89" length="86.40" shape="-100.00,-8.00 -13.60,-8.00"/>
        <lane id="4_1" index="1" allow="private emergency authority vip passenger hov taxi bus coach delivery truck trailer motorcycle moped evehicle custom1 custom2" speed="13.89" length="86.40" shape="-100.00,-4.80 -13.60,-4.80"/>
        <lane id="4_2" index="2" allow="private emergency authority vip passenger hov taxi bus coach delivery truck trailer motorcycle moped evehicle custom1 custom2" speed="13.89" length="86.40" shape="-100.00,-1.60 -13.60,-1.60"/>
    </edge>
    <edge id="5" from="gneJ8" to="gneJ11" priority="-1">
        <lane id="5_0" index="0" speed="13.89" length="86.40" shape="-8.00,-13.60 -8.00,-100.00"/>
        <lane id="5_1" index="1" speed="13.89" length="86.40" shape="-4.80,-13.60 -4.80,-100.00"/>
        <lane id="5_2" index="2" speed="13.89" length="86.40" shape="-1.60,-13.60 -1.60,-100.00"/>
    </edge>
    <edge id="7" from="gneJ8" to="gneJ10" priority="-1">
        <lane id="7_0" index="0" speed="13.89" length="86.40" shape="4.80,13.60 4.80,100.00"/>
        <lane id="7_1" index="1" speed="13.89" length="86.40" shape="1.60,13.60 1.60,100.00"/>
    </edge>
    <edge id="8" from="gneJ8" to="gneJ7" priority="-1">
        <lane id="8_0" index="0" allow="private emergency authority vip passenger hov taxi bus coach delivery truck trailer motorcycle moped evehicle custom1 custom2" speed="13.89" length="86.40" shape="-13.60,4.80 -100.00,4.80"/>
        <lane id="8_1" index="1" allow="private emergency authority vip passenger hov taxi bus coach delivery truck trailer motorcycle moped evehicle custom1 custom2" speed="13.89" length="86.40" shape="-13.60,1.60 -100.00,1.60"/>
    </edge>

    <tlLogic id="gneJ8" type="static" programID="0" offset="0">
        <phase duration="38" state="rrrrrGGGrrrrGGGg"/>
        <phase duration="3"  state="rrrrryyyrrrryyyg"/>
        <phase duration="6"  state="rrrrrrrrrrrrGGGG"/>
        <phase duration="3"  state="rrrrrrrrrrrryyyy"/>
        <phase duration="37" state="GGGGgrrrGGGgrrrr"/>
        <phase duration="3"  state="yyyyyrrryyyyrrrr"/>
    </tlLogic>

    <junction id="gneJ10" type="dead_end" x="0.00" y="100.00" incLanes="7_0 7_1" intLanes="" shape="0.00,100.00 6.40,100.00 0.00,100.00"/>
    <junction id="gneJ11" type="dead_end" x="0.00" y="-100.00" incLanes="5_0 5_1 5_2" intLanes="" shape="0.00,-100.00 -9.60,-100.00 0.00,-100.00"/>
    <junction id="gneJ7" type="dead_end" x="-100.00" y="0.00" incLanes="8_0 8_1" intLanes="" shape="-100.00,0.00 -100.00,6.40 -100.00,0.00"/>
    <junction id="gneJ8" type="traffic_light" x="0.00" y="0.00" incLanes="3_0 3_1 3_2 2_0 2_1 2_2 1_0 1_1 4_0 4_1 4_2" intLanes=":gneJ8_0_0 :gneJ8_1_0 :gneJ8_1_1 :gneJ8_1_2 :gneJ8_16_0 :gneJ8_5_0 :gneJ8_6_0 :gneJ8_6_1 :gneJ8_8_0 :gneJ8_9_0 :gneJ8_9_1 :gneJ8_17_0 :gneJ8_12_0 :gneJ8_13_0 :gneJ8_13_1 :gneJ8_18_0" shape="-9.60,13.60 6.40,13.60 6.84,11.38 7.40,10.60 8.18,10.04 9.18,9.71 10.40,9.60 10.40,-9.60 8.18,-10.04 7.40,-10.60 6.84,-11.38 6.51,-12.38 6.40,-13.60 -9.60,-13.60 -10.04,-11.38 -10.60,-10.60 -11.38,-10.04 -12.38,-9.71 -13.60,-9.60 -13.60,6.40 -11.38,7.20 -10.60,8.20 -10.04,9.60 -9.71,11.40">
        <request index="0"  response="0000000011000000" foes="0000000011000000" cont="0"/>
        <request index="1"  response="1111000011000000" foes="1111100011000000" cont="0"/>
        <request index="2"  response="1111000011000000" foes="1111100011000000" cont="0"/>
        <request index="3"  response="1111000011000000" foes="1111100011000000" cont="0"/>
        <request index="4"  response="1000011011000000" foes="1000011011000000" cont="1"/>
        <request index="5"  response="0000000000000000" foes="0000011000000000" cont="0"/>
        <request index="6"  response="0000100000010000" foes="1000111000011111" cont="0"/>
        <request index="7"  response="0000100000010000" foes="1000111000011111" cont="0"/>
        <request index="8"  response="0110000000000000" foes="0110000000000000" cont="0"/>
        <request index="9"  response="1110000011100000" foes="1110000011110000" cont="0"/>
        <request index="10" response="1110000011100000" foes="1110000011110000" cont="0"/>
        <request index="11" response="1110000011001110" foes="1110000011001110" cont="1"/>
        <request index="12" response="0000000000000000" foes="0000000000001110" cont="0"/>
        <request index="13" response="0000100000000000" foes="0000111100001110" cont="0"/>
        <request index="14" response="0000100000000000" foes="0000111100001110" cont="0"/>
        <request index="15" response="0000100011010000" foes="0000111011011110" cont="1"/>
    </junction>
    <junction id="gneJ9" type="dead_end" x="100.00" y="0.00" incLanes="-2_0 -2_1 -2_2" intLanes="" shape="100.00,0.00 100.00,-9.60 100.00,0.00"/>

    <junction id=":gneJ8_16_0" type="internal" x="0.00" y="5.16" incLanes=":gneJ8_4_0 1_0 1_1" intLanes=":gneJ8_6_0 :gneJ8_6_1 :gneJ8_8_0 :gneJ8_9_0 :gneJ8_9_1 :gneJ8_13_0 :gneJ8_13_1 :gneJ8_15_0"/>
    <junction id=":gneJ8_17_0" type="internal" x="0.00" y="-5.87" incLanes=":gneJ8_11_0 3_0 3_1 3_2" intLanes=":gneJ8_0_0 :gneJ8_1_0 :gneJ8_1_1 :gneJ8_1_2 :gneJ8_6_0 :gneJ8_6_1 :gneJ8_13_0 :gneJ8_13_1 :gneJ8_15_0"/>
    <junction id=":gneJ8_18_0" type="internal" x="-5.87" y="-0.00" incLanes=":gneJ8_15_0 2_0 2_1 2_2" intLanes=":gneJ8_1_0 :gneJ8_1_1 :gneJ8_1_2 :gneJ8_4_0 :gneJ8_5_0 :gneJ8_6_0 :gneJ8_6_1 :gneJ8_9_0 :gneJ8_9_1 :gneJ8_11_0"/>

    <connection from="1" to="-2" fromLane="0" toLane="0" via=":gneJ8_8_0" tl="gneJ8" linkIndex="8" dir="r" state="o"/>
    <connection from="1" to="7" fromLane="0" toLane="0" via=":gneJ8_9_0" tl="gneJ8" linkIndex="9" dir="s" state="o"/>
    <connection from="1" to="7" fromLane="1" toLane="1" via=":gneJ8_9_1" tl="gneJ8" linkIndex="10" dir="s" state="o"/>
    <connection from="1" to="8" fromLane="1" toLane="1" via=":gneJ8_11_0" tl="gneJ8" linkIndex="11" dir="l" state="o"/>
    <connection from="2" to="7" fromLane="0" toLane="0" via=":gneJ8_5_0" tl="gneJ8" linkIndex="5" dir="r" state="O"/>
    <connection from="2" to="8" fromLane="1" toLane="0" via=":gneJ8_6_0" tl="gneJ8" linkIndex="6" dir="s" state="O"/>
    <connection from="2" to="8" fromLane="2" toLane="1" via=":gneJ8_6_1" tl="gneJ8" linkIndex="7" dir="s" state="O"/>
    <connection from="3" to="8" fromLane="0" toLane="0" via=":gneJ8_0_0" tl="gneJ8" linkIndex="0" dir="r" state="o"/>
    <connection from="3" to="5" fromLane="0" toLane="0" via=":gneJ8_1_0" tl="gneJ8" linkIndex="1" dir="s" state="o"/>
    <connection from="3" to="5" fromLane="1" toLane="1" via=":gneJ8_1_1" tl="gneJ8" linkIndex="2" dir="s" state="o"/>
    <connection from="3" to="5" fromLane="2" toLane="2" via=":gneJ8_1_2" tl="gneJ8" linkIndex="3" dir="s" state="o"/>
    <connection from="3" to="-2" fromLane="2" toLane="2" via=":gneJ8_4_0" tl="gneJ8" linkIndex="4" dir="l" state="o"/>
    <connection from="4" to="5" fromLane="0" toLane="0" via=":gneJ8_12_0" tl="gneJ8" linkIndex="12" dir="r" state="O"/>
    <connection from="4" to="-2" fromLane="0" toLane="0" via=":gneJ8_13_0" tl="gneJ8" linkIndex="13" dir="s" state="O"/>
    <connection from="4" to="-2" fromLane="1" toLane="1" via=":gneJ8_13_1" tl="gneJ8" linkIndex="14" dir="s" state="O"/>
    <connection from="4" to="7" fromLane="2" toLane="1" via=":gneJ8_15_0" tl="gneJ8" linkIndex="15" dir="l" state="o"/>

    <connection from=":gneJ8_0" to="8" fromLane="0" toLane="0" dir="r" state="M"/>
    <connection from=":gneJ8_1" to="5" fromLane="0" toLane="0" dir="s" state="M"/>
    <connection from=":gneJ8_1" to="5" fromLane="1" toLane="1" dir="s" state="M"/>
    <connection from=":gneJ8_1" to="5" fromLane="2" toLane="2" dir="s" state="M"/>
    <connection from=":gneJ8_4" to="-2" fromLane="0" toLane="2" via=":gneJ8_16_0" dir="l" state="m"/>
    <connection from=":gneJ8_16" to="-2" fromLane="0" toLane="2" dir="l" state="M"/>
    <connection from=":gneJ8_5" to="7" fromLane="0" toLane="0" dir="r" state="M"/>
    <connection from=":gneJ8_6" to="8" fromLane="0" toLane="0" dir="s" state="M"/>
    <connection from=":gneJ8_6" to="8" fromLane="1" toLane="1" dir="s" state="M"/>
    <connection from=":gneJ8_8" to="-2" fromLane="0" toLane="0" dir="r" state="M"/>
    <connection from=":gneJ8_9" to="7" fromLane="0" toLane="0" dir="s" state="M"/>
    <connection from=":gneJ8_9" to="7" fromLane="1" toLane="1" dir="s" state="M"/>
    <connection from=":gneJ8_11" to="8" fromLane="0" toLane="1" via=":gneJ8_17_0" dir="l" state="m"/>
    <connection from=":gneJ8_17" to="8" fromLane="0" toLane="1" dir="l" state="M"/>
    <connection from=":gneJ8_12" to="5" fromLane="0" toLane="0" dir="r" state="M"/>
    <connection from=":gneJ8_13" to="-2" fromLane="0" toLane="0" dir="s" state="M"/>
    <connection from=":gneJ8_13" to="-2" fromLane="1" toLane="1" dir="s" state="M"/>
    <connection from=":gneJ8_15" to="7" fromLane="0" toLane="1" via=":gneJ8_18_0" dir="l" state="m"/>
    <connection from=":gneJ8_18" to="7" fromLane="0" toLane="1" dir="l" state="M"/>

</net>
