<?xml version="1.0" encoding="UTF-8"?>

<!-- generated on 02/11/20 15:13:34 by Eclipse SUMO netedit Version 1.4.0
<configuration xmlns:xsi="http://www.w3.org/2001/XMLSchema-instance" xsi:noNamespaceSchemaLocation="http://sumo.dlr.de/xsd/netconvertConfiguration.xsd">

    <input>
        <sumo-net-file value="C:\Users\Dylan%20B\Desktop\Hood%20Stuff\2020%20-2021\CS%20475%20Senior%20Seminar\sumo-win64-1.4.0\sumo-1.4.0\bin\Prototype1.net.xml"/>
    </input>

    <output>
        <output-file value="C:\Users\Dylan%20B\Desktop\Hood%20Stuff\2020%20-2021\CS%20475%20Senior%20Seminar\sumo-win64-1.4.0\sumo-1.4.0\bin\Prototype1.net.xml"/>
    </output>

    <processing>
        <geometry.min-radius.fix.railways value="false"/>
        <geometry.max-grade.fix value="false"/>
        <offset.disable-normalization value="true"/>
        <lefthand value="false"/>
    </processing>

    <junctions>
        <no-turnarounds value="true"/>
        <junctions.corner-detail value="5"/>
        <junctions.limit-turn-speed value="5.5"/>
        <rectangular-lane-cut value="false"/>
    </junctions>

    <pedestrian>
        <walkingareas value="false"/>
    </pedestrian>

    <report>
        <aggregate-warnings value="5"/>
    </report>

</configuration>
-->

<net version="1.3" junctionCornerDetail="5" limitTurnSpeed="5.50" xmlns:xsi="http://www.w3.org/2001/XMLSchema-instance" xsi:noNamespaceSchemaLocation="http://sumo.dlr.de/xsd/net_file.xsd">

    <location netOffset="0.00,0.00" convBoundary="-100.00,-100.00,100.00,100.00" origBoundary="-10000000000.00,-10000000000.00,10000000000.00,10000000000.00" projParameter="!"/>

    <edge id=":gneJ8_0" function="internal">
        <lane id=":gneJ8_0_0" index="0" allow="private emergency authority vip passenger hov taxi bus coach delivery truck trailer motorcycle moped evehicle custom1 custom2" speed="6.51" length="9.03" shape="-4.80,10.40 -5.15,7.95 -6.20,6.20 -7.95,5.15 -10.40,4.80"/>
    </edge>
    <edge id=":gneJ8_1" function="internal">
        <lane id=":gneJ8_1_0" index="0" speed="13.89" length="20.80" shape="-4.80,10.40 -4.80,-10.40"/>
        <lane id=":gneJ8_1_1" index="1" speed="13.89" length="20.80" shape="-1.60,10.40 -1.60,-10.40"/>
    </edge>
    <edge id=":gneJ8_3" function="internal">
        <lane id=":gneJ8_3_0" index="0" speed="9.26" length="6.96" shape="-1.60,10.40 -0.85,5.15 -0.00,3.73"/>
    </edge>
    <edge id=":gneJ8_16" function="internal">
        <lane id=":gneJ8_16_0" index="0" speed="9.26" length="12.40" shape="-0.00,3.73 1.40,1.40 5.15,-0.85 10.40,-1.60"/>
    </edge>
    <edge id=":gneJ8_4" function="internal">
        <lane id=":gneJ8_4_0" index="0" speed="6.51" length="9.03" shape="10.40,4.80 7.95,5.15 6.20,6.20 5.15,7.95 4.80,10.40"/>
    </edge>
    <edge id=":gneJ8_5" function="internal">
        <lane id=":gneJ8_5_0" index="0" allow="private emergency authority vip passenger hov taxi bus coach delivery truck trailer motorcycle moped evehicle custom1 custom2" speed="13.89" length="20.80" shape="10.40,4.80 -10.40,4.80"/>
        <lane id=":gneJ8_5_1" index="1" allow="private emergency authority vip passenger hov taxi bus coach delivery truck trailer motorcycle moped evehicle custom1 custom2" speed="13.89" length="20.80" shape="10.40,1.60 -10.40,1.60"/>
    </edge>
    <edge id=":gneJ8_7" function="internal">
        <lane id=":gneJ8_7_0" index="0" speed="9.26" length="6.96" shape="10.40,1.60 5.15,0.85 3.73,0.00"/>
    </edge>
    <edge id=":gneJ8_17" function="internal">
        <lane id=":gneJ8_17_0" index="0" speed="9.26" length="12.40" shape="3.73,0.00 1.40,-1.40 -0.85,-5.15 -1.60,-10.40"/>
    </edge>
    <edge id=":gneJ8_8" function="internal">
        <lane id=":gneJ8_8_0" index="0" speed="6.51" length="9.03" shape="4.80,-10.40 5.15,-7.95 6.20,-6.20 7.95,-5.15 10.40,-4.80"/>
    </edge>
    <edge id=":gneJ8_9" function="internal">
        <lane id=":gneJ8_9_0" index="0" speed="13.89" length="20.80" shape="4.80,-10.40 4.80,10.40"/>
        <lane id=":gneJ8_9_1" index="1" speed="13.89" length="20.80" shape="1.60,-10.40 1.60,10.40"/>
    </edge>
    <edge id=":gneJ8_11" function="internal">
        <lane id=":gneJ8_11_0" index="0" allow="private emergency authority vip passenger hov taxi bus coach delivery truck trailer motorcycle moped evehicle custom1 custom2" speed="9.26" length="6.96" shape="1.60,-10.40 0.85,-5.15 0.00,-3.73"/>
    </edge>
    <edge id=":gneJ8_18" function="internal">
        <lane id=":gneJ8_18_0" index="0" allow="private emergency authority vip passenger hov taxi bus coach delivery truck trailer motorcycle moped evehicle custom1 custom2" speed="9.26" length="12.40" shape="0.00,-3.73 -1.40,-1.40 -5.15,0.85 -10.40,1.60"/>
    </edge>
    <edge id=":gneJ8_12" function="internal">
        <lane id=":gneJ8_12_0" index="0" speed="6.51" length="9.03" shape="-10.40,-4.80 -7.95,-5.15 -6.20,-6.20 -5.15,-7.95 -4.80,-10.40"/>
    </edge>
    <edge id=":gneJ8_13" function="internal">
        <lane id=":gneJ8_13_0" index="0" speed="13.89" length="20.80" shape="-10.40,-4.80 10.40,-4.80"/>
        <lane id=":gneJ8_13_1" index="1" speed="13.89" length="20.80" shape="-10.40,-1.60 10.40,-1.60"/>
    </edge>
    <edge id=":gneJ8_15" function="internal">
        <lane id=":gneJ8_15_0" index="0" speed="9.26" length="6.96" shape="-10.40,-1.60 -5.15,-0.85 -3.73,-0.00"/>
    </edge>
    <edge id=":gneJ8_19" function="internal">
        <lane id=":gneJ8_19_0" index="0" speed="9.26" length="12.40" shape="-3.73,-0.00 -1.40,1.40 0.85,5.15 1.60,10.40"/>
    </edge>

    <edge id="1" from="gneJ11" to="gneJ8" priority="-1">
        <lane id="1_0" index="0" speed="13.89" length="89.60" shape="4.80,-100.00 4.80,-10.40"/>
        <lane id="1_1" index="1" speed="13.89" length="89.60" shape="1.60,-100.00 1.60,-10.40"/>
    </edge>
    <edge id="2" from="gneJ9" to="gneJ8" priority="-1">
        <lane id="2_0" index="0" speed="13.89" length="89.60" shape="100.00,4.80 10.40,4.80"/>
        <lane id="2_1" index="1" speed="13.89" length="89.60" shape="100.00,1.60 10.40,1.60"/>
    </edge>
    <edge id="3" from="gneJ10" to="gneJ8" priority="-1">
        <lane id="3_0" index="0" speed="13.89" length="89.60" shape="-4.80,100.00 -4.80,10.40"/>
        <lane id="3_1" index="1" speed="13.89" length="89.60" shape="-1.60,100.00 -1.60,10.40"/>
    </edge>
    <edge id="4" from="gneJ7" to="gneJ8" priority="-1">
        <lane id="4_0" index="0" allow="private emergency authority vip passenger hov taxi bus coach delivery truck trailer motorcycle moped evehicle custom1 custom2" speed="13.89" length="89.60" shape="-100.00,-4.80 -10.40,-4.80"/>
        <lane id="4_1" index="1" allow="private emergency authority vip passenger hov taxi bus coach delivery truck trailer motorcycle moped evehicle custom1 custom2" speed="13.89" length="89.60" shape="-100.00,-1.60 -10.40,-1.60"/>
    </edge>
    <edge id="5" from="gneJ8" to="gneJ11" priority="-1">
        <lane id="5_0" index="0" speed="13.89" length="89.60" shape="-4.80,-10.40 -4.80,-100.00"/>
        <lane id="5_1" index="1" speed="13.89" length="89.60" shape="-1.60,-10.40 -1.60,-100.00"/>
    </edge>
    <edge id="6" from="gneJ8" to="gneJ9" priority="-1">
        <lane id="6_0" index="0" speed="13.89" length="89.60" shape="10.40,-4.80 100.00,-4.80"/>
        <lane id="6_1" index="1" speed="13.89" length="89.60" shape="10.40,-1.60 100.00,-1.60"/>
    </edge>
    <edge id="7" from="gneJ8" to="gneJ10" priority="-1">
        <lane id="7_0" index="0" speed="13.89" length="89.60" shape="4.80,10.40 4.80,100.00"/>
        <lane id="7_1" index="1" speed="13.89" length="89.60" shape="1.60,10.40 1.60,100.00"/>
    </edge>
    <edge id="8" from="gneJ8" to="gneJ7" priority="-1">
        <lane id="8_0" index="0" allow="private emergency authority vip passenger hov taxi bus coach delivery truck trailer motorcycle moped evehicle custom1 custom2" speed="13.89" length="89.60" shape="-10.40,4.80 -100.00,4.80"/>
        <lane id="8_1" index="1" allow="private emergency authority vip passenger hov taxi bus coach delivery truck trailer motorcycle moped evehicle custom1 custom2" speed="13.89" length="89.60" shape="-10.40,1.60 -100.00,1.60"/>
    </edge>

    <tlLogic id="gneJ8" type="static" programID="0" offset="0">
        <phase duration="42" state="GGGgrrrrGGGgrrrr"/>
        <phase duration="3"  state="yyyyrrrryyyyrrrr"/>
        <phase duration="42" state="rrrrGGGgrrrrGGGg"/>
        <phase duration="3"  state="rrrryyyyrrrryyyy"/>
    </tlLogic>
    <tlLogic id="gneJ8" type="static" programID="1" offset="0">
        <phase duration="42" state="GGGgrrrrGGGgrrrr"/>
        <phase duration="3"  state="yyyyrrrryyyyrrrr"/>
        <phase duration="42" state="rrrrGGGgrrrrGGGg"/>
        <phase duration="3"  state="rrrryyyyrrrryyyy"/>
    </tlLogic>

    <junction id="gneJ10" type="dead_end" x="0.00" y="100.00" incLanes="7_0 7_1" intLanes="" shape="0.00,100.00 6.40,100.00 0.00,100.00"/>
    <junction id="gneJ11" type="dead_end" x="0.00" y="-100.00" incLanes="5_0 5_1" intLanes="" shape="0.00,-100.00 -6.40,-100.00 0.00,-100.00"/>
    <junction id="gneJ7" type="dead_end" x="-100.00" y="0.00" incLanes="8_0 8_1" intLanes="" shape="-100.00,0.00 -100.00,6.40 -100.00,0.00"/>
    <junction id="gneJ8" type="traffic_light" x="0.00" y="0.00" incLanes="3_0 3_1 2_0 2_1 1_0 1_1 4_0 4_1" intLanes=":gneJ8_0_0 :gneJ8_1_0 :gneJ8_1_1 :gneJ8_16_0 :gneJ8_4_0 :gneJ8_5_0 :gneJ8_5_1 :gneJ8_17_0 :gneJ8_8_0 :gneJ8_9_0 :gneJ8_9_1 :gneJ8_18_0 :gneJ8_12_0 :gneJ8_13_0 :gneJ8_13_1 :gneJ8_19_0" shape="-6.40,10.40 6.40,10.40 6.84,8.18 7.40,7.40 8.18,6.84 9.18,6.51 10.40,6.40 10.40,-6.40 8.18,-6.84 7.40,-7.40 6.84,-8.18 6.51,-9.18 6.40,-10.40 -6.40,-10.40 -6.84,-8.18 -7.40,-7.40 -8.18,-6.84 -9.18,-6.51 -10.40,-6.40 -10.40,6.40 -8.18,6.84 -7.40,7.40 -6.84,8.18 -6.51,9.18">
        <request index="0"  response="0000000000000000" foes="0000000001100000" cont="0"/>
        <request index="1"  response="1000000010000000" foes="1111100011100000" cont="0"/>
        <request index="2"  response="1000000010000000" foes="1111100011100000" cont="0"/>
        <request index="3"  response="1000011010000000" foes="1110011011100000" cont="1"/>
        <request index="4"  response="0000011000000000" foes="0000011000000000" cont="0"/>
        <request index="5"  response="0000111000001111" foes="1000111000001111" cont="0"/>
        <request index="6"  response="0000111000001111" foes="1000111000001111" cont="0"/>
        <request index="7"  response="0110111000001110" foes="0110111000001110" cont="1"/>
        <request index="8"  response="0000000000000000" foes="0110000000000000" cont="0"/>
        <request index="9"  response="1000000010000000" foes="1110000011111000" cont="0"/>
        <request index="10" response="1000000010000000" foes="1110000011111000" cont="0"/>
        <request index="11" response="1000000010000110" foes="1110000011100110" cont="1"/>
        <request index="12" response="0000000000000110" foes="0000000000000110" cont="0"/>
        <request index="13" response="0000111100001110" foes="0000111110001110" cont="0"/>
        <request index="14" response="0000111100001110" foes="0000111110001110" cont="0"/>
        <request index="15" response="0000111001101110" foes="0000111001101110" cont="1"/>
    </junction>
    <junction id="gneJ9" type="dead_end" x="100.00" y="0.00" incLanes="6_0 6_1" intLanes="" shape="100.00,0.00 100.00,-6.40 100.00,0.00"/>

    <junction id=":gneJ8_16_0" type="internal" x="-0.00" y="3.73" incLanes=":gneJ8_3_0 1_0 1_1" intLanes=":gneJ8_5_0 :gneJ8_5_1 :gneJ8_7_0 :gneJ8_8_0 :gneJ8_9_0 :gneJ8_9_1 :gneJ8_13_0 :gneJ8_13_1 :gneJ8_15_0"/>
    <junction id=":gneJ8_17_0" type="internal" x="3.73" y="0.00" incLanes=":gneJ8_7_0 4_0 4_1" intLanes=":gneJ8_1_0 :gneJ8_1_1 :gneJ8_3_0 :gneJ8_9_0 :gneJ8_9_1 :gneJ8_11_0 :gneJ8_12_0 :gneJ8_13_0 :gneJ8_13_1"/>
    <junction id=":gneJ8_18_0" type="internal" x="0.00" y="-3.73" incLanes=":gneJ8_11_0 3_0 3_1" intLanes=":gneJ8_0_0 :gneJ8_1_0 :gneJ8_1_1 :gneJ8_5_0 :gneJ8_5_1 :gneJ8_7_0 :gneJ8_13_0 :gneJ8_13_1 :gneJ8_15_0"/>
    <junction id=":gneJ8_19_0" type="internal" x="-3.73" y="-0.00" incLanes=":gneJ8_15_0 2_0 2_1" intLanes=":gneJ8_1_0 :gneJ8_1_1 :gneJ8_3_0 :gneJ8_4_0 :gneJ8_5_0 :gneJ8_5_1 :gneJ8_9_0 :gneJ8_9_1 :gneJ8_11_0"/>

    <connection from="1" to="6" fromLane="0" toLane="0" via=":gneJ8_8_0" tl="gneJ8" linkIndex="8" dir="r" state="O"/>
    <connection from="1" to="7" fromLane="0" toLane="0" via=":gneJ8_9_0" tl="gneJ8" linkIndex="9" dir="s" state="O"/>
    <connection from="1" to="7" fromLane="1" toLane="1" via=":gneJ8_9_1" tl="gneJ8" linkIndex="10" dir="s" state="O"/>
    <connection from="1" to="8" fromLane="1" toLane="1" via=":gneJ8_11_0" tl="gneJ8" linkIndex="11" dir="l" state="o"/>
    <connection from="2" to="7" fromLane="0" toLane="0" via=":gneJ8_4_0" tl="gneJ8" linkIndex="4" dir="r" state="o"/>
    <connection from="2" to="8" fromLane="0" toLane="0" via=":gneJ8_5_0" tl="gneJ8" linkIndex="5" dir="s" state="o"/>
    <connection from="2" to="8" fromLane="1" toLane="1" via=":gneJ8_5_1" tl="gneJ8" linkIndex="6" dir="s" state="o"/>
    <connection from="2" to="5" fromLane="1" toLane="1" via=":gneJ8_7_0" tl="gneJ8" linkIndex="7" dir="l" state="o"/>
    <connection from="3" to="8" fromLane="0" toLane="0" via=":gneJ8_0_0" tl="gneJ8" linkIndex="0" dir="r" state="O"/>
    <connection from="3" to="5" fromLane="0" toLane="0" via=":gneJ8_1_0" tl="gneJ8" linkIndex="1" dir="s" state="O"/>
    <connection from="3" to="5" fromLane="1" toLane="1" via=":gneJ8_1_1" tl="gneJ8" linkIndex="2" dir="s" state="O"/>
    <connection from="3" to="6" fromLane="1" toLane="1" via=":gneJ8_3_0" tl="gneJ8" linkIndex="3" dir="l" state="o"/>
    <connection from="4" to="5" fromLane="0" toLane="0" via=":gneJ8_12_0" tl="gneJ8" linkIndex="12" dir="r" state="o"/>
    <connection from="4" to="6" fromLane="0" toLane="0" via=":gneJ8_13_0" tl="gneJ8" linkIndex="13" dir="s" state="o"/>
    <connection from="4" to="6" fromLane="1" toLane="1" via=":gneJ8_13_1" tl="gneJ8" linkIndex="14" dir="s" state="o"/>
    <connection from="4" to="7" fromLane="1" toLane="1" via=":gneJ8_15_0" tl="gneJ8" linkIndex="15" dir="l" state="o"/>

    <connection from=":gneJ8_0" to="8" fromLane="0" toLane="0" dir="r" state="M"/>
    <connection from=":gneJ8_1" to="5" fromLane="0" toLane="0" dir="s" state="M"/>
    <connection from=":gneJ8_1" to="5" fromLane="1" toLane="1" dir="s" state="M"/>
    <connection from=":gneJ8_3" to="6" fromLane="0" toLane="1" via=":gneJ8_16_0" dir="l" state="m"/>
    <connection from=":gneJ8_16" to="6" fromLane="0" toLane="1" dir="l" state="M"/>
    <connection from=":gneJ8_4" to="7" fromLane="0" toLane="0" dir="r" state="M"/>
    <connection from=":gneJ8_5" to="8" fromLane="0" toLane="0" dir="s" state="M"/>
    <connection from=":gneJ8_5" to="8" fromLane="1" toLane="1" dir="s" state="M"/>
    <connection from=":gneJ8_7" to="5" fromLane="0" toLane="1" via=":gneJ8_17_0" dir="l" state="m"/>
    <connection from=":gneJ8_17" to="5" fromLane="0" toLane="1" dir="l" state="M"/>
    <connection from=":gneJ8_8" to="6" fromLane="0" toLane="0" dir="r" state="M"/>
    <connection from=":gneJ8_9" to="7" fromLane="0" toLane="0" dir="s" state="M"/>
    <connection from=":gneJ8_9" to="7" fromLane="1" toLane="1" dir="s" state="M"/>
    <connection from=":gneJ8_11" to="8" fromLane="0" toLane="1" via=":gneJ8_18_0" dir="l" state="m"/>
    <connection from=":gneJ8_18" to="8" fromLane="0" toLane="1" dir="l" state="M"/>
    <connection from=":gneJ8_12" to="5" fromLane="0" toLane="0" dir="r" state="M"/>
    <connection from=":gneJ8_13" to="6" fromLane="0" toLane="0" dir="s" state="M"/>
    <connection from=":gneJ8_13" to="6" fromLane="1" toLane="1" dir="s" state="M"/>
    <connection from=":gneJ8_15" to="7" fromLane="0" toLane="1" via=":gneJ8_19_0" dir="l" state="m"/>
    <connection from=":gneJ8_19" to="7" fromLane="0" toLane="1" dir="l" state="M"/>

</net>
